!!>>>>>>>>>>>>>>>>>>>>>>>>>>>>>>>>>>>>>>>>>>>>>>>>>>>>>>>>>>>>>>>>>>>>>>
!! NEMO/OCE  Configuration namelist : overwrite default values defined in SHARED/namelist_ref
!!>>>>>>>>>>>>>>>>>>>>>>>>>>>>>>>>>>>>>>>>>>>>>>>>>>>>>>>>>>>>>>>>>>>>>>
!!             ORCA2 - ICE - PISCES configuration                     !!
!!======================================================================
!!              ***  Domain & Run management namelists  ***           !!
!!                                                                    !!
!!   namrun       parameters of the run
!!   namdom       space and time domain
!!   namcfg       parameters of the configuration                       (default: user defined GYRE)
!!   namwad       Wetting and drying                                    (default: OFF)
!!   namtsd       data: temperature & salinity                          (default: OFF)
!!   namc1d       1D configuration options                              (ln_c1d =T)
!!======================================================================
!
!-----------------------------------------------------------------------
&namrun        !   parameters of the run
!-----------------------------------------------------------------------
   nn_no       =        0   !  Assimilation cycle index
   cn_exp      =  "eOrca1"  !  experience name
   nn_it000    = 11680001   !  first time step
   !nn_itend    = 11680128
   !nn_itend    = 11691680   !  last  time step (std 5840)
   nn_itend    = 11738400
   nn_date0    = 10010101   !  date at nit_0000 (format yyyymmdd) used if ln_rstart=F or (ln_rstart=T and nn_rstctl=0 or 1)
   nn_leapy    =        0   !  Leap year calendar (1) or not (0)
   ln_rstart   = .true.     !  start from rest (F) or from a restart file (T)
      ln_1st_euler     = .false.                  !  =T force a start with forward time step (ln_rstart=T)
      nn_rstctl        =    2                     !  restart control ==> activated only if ln_rstart=T
      !                                           !    = 0 nn_date0 read in namelist ; nn_it000 : read in namelist
      !                                           !    = 1 nn_date0 read in namelist ; nn_it000 : check consistancy between namelist and restart
      !                                           !    = 2 nn_date0 read in restart  ; nn_it000 : check consistancy between namelist and restart
      cn_ocerst_in     = "TRA_10001231_restart"   !  suffix of ocean restart name (input)
      cn_ocerst_indir  = "."                      !  directory from which to read input ocean restarts
      cn_ocerst_out    = "restart"                !  suffix of ocean restart name (output)
      cn_ocerst_outdir = "."                      !  directory in which to write output ocean restarts
   nn_stock    = 11691680   !  used only if ln_rst_list = F: output restart freqeuncy (modulo referenced to 1)
      !                     !    =  0 force to write restart files only at the end of the run
      !                     !    = -1 do not do any restart
   ln_mskland  = .true.     !  mask land points in NetCDF outputs
   ln_cfmeta   = .true.     !  output additional data to netCDF files required for compliance with the CF metadata standard
   ln_clobber  = .true.     !  clobber (overwrite) an existing file
/
!-----------------------------------------------------------------------
&namdom        !   time and space domain
!-----------------------------------------------------------------------
!MLF   rn_Dt       = 5400.     !  time step for the dynamics and tracer
   rn_Dt       =  5400.     !  time step for the dynamics and tracer
   ln_meshmask = .false.    !  =T create a mesh file
/
!-----------------------------------------------------------------------
&namcfg        !   parameters of the configuration                      (default: use namusr_def in namelist_cfg)
!-----------------------------------------------------------------------
   ln_read_cfg = .true.    !  (=T) read the domain configuration file
      cn_domcfg = "domain_cfg"    ! domain configuration filename
      !
      ln_closea    = .false.    !  F => suppress closed seas (defined by closea_mask field)
      !                         !       from the bathymetry at runtime.
/
!-----------------------------------------------------------------------
&namtile        !   parameters of the tiling
!-----------------------------------------------------------------------
/
!-----------------------------------------------------------------------
&namtsd        !    Temperature & Salinity Data  (init/dmp)             (default: OFF)
!-----------------------------------------------------------------------
   !                       ! =T  read T-S fields for:
   ln_tsd_init = .true.          !  ocean initialisation
   ln_tsd_dmp  = .false.          !  T-S restoring   (see namtra_dmp)

   cn_dir = './'     !  root directory for the T-S data location
   !___________!_________________________!___________________!___________!_____________!________!___________!__________________!__________!_______________!
   !           !  file name              ! frequency (hours) ! variable  ! time interp.!  clim  ! 'yearly'/ ! weights filename ! rotation ! land/sea mask !
   !           !                         !  (if <0  months)  !   name    !   (logical) !  (T/F) ! 'monthly' !                  ! pairing  !    filename   !
   sn_tem  = 'woce_temp_monthly_init_4p2', -1 ,'contemp' , .true. , .true. , 'yearly' , ''  ,   ''    ,    ''
   sn_sal  = 'woce_salt_monthly_init_4p2', -1 ,'presalt' , .true. , .true. , 'yearly' , ''  ,   ''    ,    ''
/
!!======================================================================
!!            ***  Surface Boundary Condition namelists  ***          !!
!!                                                                    !!
!!   namsbc          surface boundary condition manager                 (default: NO selection)
!!   namsbc_flx      flux               formulation                     (ln_flx     =T)
!!   namsbc_blk      Bulk formulae formulation                          (ln_blk     =T)
!!   namsbc_cpl      CouPLed            formulation                     ("key_oasis3" )
!!   namsbc_sas      Stand-Alone Surface module                         (SAS_SRC  only)
!!   namsbc_iif      Ice-IF: use observed ice cover                     (nn_ice = 1   )
!!   namtra_qsr      penetrative solar radiation                        (ln_traqsr  =T)
!!   namsbc_ssr      sea surface restoring term (for T and/or S)        (ln_ssr     =T)
!!   namsbc_rnf      river runoffs                                      (ln_rnf     =T)
!!   namsbc_apr      Atmospheric Pressure                               (ln_apr_dyn =T)
!!   namsbc_isf      ice shelf melting/freezing                         (ln_isfcav  =T : read (ln_read_cfg=T) or set or usr_def_zgr )
!!   namsbc_iscpl    coupling option between land ice model and ocean   (ln_isfcav  =T)
!!   namsbc_wave     external fields from wave model                    (ln_wave    =T)
!!   namberg         iceberg floats                                     (ln_icebergs=T)
!!======================================================================
!
!-----------------------------------------------------------------------
&namsbc        !   Surface Boundary Condition manager                   (default: NO selection)
!-----------------------------------------------------------------------
!MLF   nn_fsbc     = 4         !  frequency of SBC module call
   nn_fsbc     = 2         !  frequency of SBC module call
                           !     (also = the frequency of sea-ice & iceberg model call)
                     ! Type of air-sea fluxes
   ln_blk      = .true.    !  Bulk formulation                          (T => fill namsbc_blk )
                     ! Sea-ice :
   nn_ice      = 2         !  =0 no ice boundary condition
      !                    !  =1 use observed ice-cover                 (  => fill namsbc_iif )
      !                    !  =2 or 3 for SI3 and CICE, respectively
                     ! Misc. options of sbc :
   ln_traqsr   = .true.    !  Light penetration in the ocean            (T => fill namtra_qsr)
   ln_ssr      = .true.    !  Sea Surface Restoring on T and/or S       (T => fill namsbc_ssr)
   ln_rnf      = .true.    !  runoffs                                   (T => fill namsbc_rnf)
   nn_fwb      = 1         !  FreshWater Budget: =0 unchecked
      !                    !     =1 global mean of e-p-r set to zero at each time step
      !                    !     =2 annual global mean of e-p-r set to zero
   ln_wave     = .false.   !  Activate coupling with wave  (T => fill namsbc_wave)
/
!-----------------------------------------------------------------------
&namsbc_blk    !   namsbc_blk  generic Bulk formula                     (ln_blk =T)
!-----------------------------------------------------------------------
   !                    !  bulk algorithm :
   !                    !  bulk algorithm :
   ln_NCAR    = .true.     ! "NCAR"      algorithm   (Large and Yeager 2008)
   !! Bulk transfer coefficients over sea-ice: (relevant IF: nn_ice >=1 )
   ln_Cx_ice_cst = .true.     ! use constant ice-air bulk transfer coefficients (value given below)
      rn_Cd_ia  = 1.e-3       ! sea-ice drag coefficient
      rn_Ce_ia  = 1.e-3       !    "    sublimation coefficient
      rn_Ch_ia  = 1.e-3       !    "    sensible heat flux coefficient
   ln_Cx_ice_AN05  = .false.  !  (Andreas et al. 2005)
   ln_Cx_ice_LU12  = .false.  !  (Lupkes et al. 2012)
   ln_Cx_ice_LG15  = .false.  !  (Lupkes & Gryanik 2015)

   cn_dir = './'  !  root directory for the bulk data location
   !___________!______________________________!___________________!___________!______________!__________!___________!______________________!__________!_______________!
   !           !             file name        ! frequency (hours) ! variable  ! time interp. !  clim    ! 'yearly'/ !  weights filename    ! rotation ! land/sea mask !
   !           !                              !  (if <0  months)  !   name    !   (logical)  !  (T/F)   ! 'monthly' !                      ! pairing  !    filename   !
   sn_wndi     = 'u_10.15JUNE2009_fill'       ,         6.        , 'U_10_MOD',   .false.    ,  .true. , 'yearly'  , 'weights_coreII_2_eORCA1.4.2_bicubic.nc'  , 'Uwnd'   , ''
   sn_wndj     = 'v_10.15JUNE2009_fill'       ,         6.        , 'V_10_MOD',   .false.    ,  .true. , 'yearly'  , 'weights_coreII_2_eORCA1.4.2_bicubic.nc'  , 'Vwnd'   , ''
   sn_qsr      = 'ncar_rad.15JUNE2009_fill'   ,        24.        , 'SWDN_MOD',   .false.    ,  .true. , 'yearly'  , 'weights_coreII_2_eORCA1.4.2_bilinear.nc' , ''       , ''
   sn_qlw      = 'ncar_rad.15JUNE2009_fill'   ,        24.        , 'LWDN_MOD',   .false.    ,  .true. , 'yearly'  , 'weights_coreII_2_eORCA1.4.2_bilinear.nc' , ''       , ''
   sn_tair     = 't_10.15JUNE2009_fill'       ,         6.        , 'T_10_MOD',   .false.    ,  .true. , 'yearly'  , 'weights_coreII_2_eORCA1.4.2_bilinear.nc' , ''       , ''
   sn_humi     = 'q_10.15JUNE2009_fill'       ,         6.        , 'Q_10_MOD',   .false.    ,  .true. , 'yearly'  , 'weights_coreII_2_eORCA1.4.2_bilinear.nc' , ''       , ''
   sn_prec     = 'ncar_precip.15JUNE2009_fill',        -1.        , 'PRC_MOD' ,   .false.    ,  .true. , 'yearly'  , 'weights_coreII_2_eORCA1.4.2_bilinear.nc' , ''       , ''
   sn_snow     = 'ncar_precip.15JUNE2009_fill',        -1.        , 'SNOW'    ,   .false.    ,  .true. , 'yearly'  , 'weights_coreII_2_eORCA1.4.2_bilinear.nc' , ''       , ''
   sn_slp      = 'slp.15JUNE2009_fill'        ,         6.        , 'SLP'     ,   .false.    ,  .true. , 'yearly'  , 'weights_coreII_2_eORCA1.4.2_bilinear.nc' , ''       , ''
/
!-----------------------------------------------------------------------
&namsbc_abl    !   Atmospheric Boundary Layer formulation           (ln_abl = T)
!-----------------------------------------------------------------------
   cn_dom           = 'dom_cfg_abl_L25Z10'

   nn_dyn_restore = 2         ! restoring option for dynamical ABL variables: = 0 no restoring
                              !                                               = 1 equatorial restoring
                              !                                               = 2 global restoring
                              !                                               = 1 equatorial restoring
                              !                                               = 2 global restoring
   rn_ldyn_min   = 24.        ! dynamics nudging magnitude inside the ABL [hour] (~3 rn_Dt)
   rn_ldyn_max   =  6.        ! dynamics nudging magnitude above  the ABL [hour] (~1 rn_Dt)
   rn_ltra_min   = 24.        ! tracers  nudging magnitude inside the ABL [hour] (~3 rn_Dt)
   rn_ltra_max   =  6.        ! tracers  nudging magnitude above  the ABL [hour] (~1 rn_Dt)
   rn_vfac       =  1.
/
!-----------------------------------------------------------------------
&namtra_qsr    !   penetrative solar radiation                          (ln_traqsr =T)
!-----------------------------------------------------------------------
   !                       ! type of penetration                        (default: NO selection)
   ln_qsr_rgb  = .true.       !  RGB light penetration (Red-Green-Blue)
   !
   nn_chldta   =      1       !  RGB : Chl data (=1) or cst value (=0)

   cn_dir = './'  !  root directory for the chlorophyl data location
   !___________!_________________________!___________________!___________!_____________!________!___________!__________________!__________!_______________!
   !           !  file name              ! frequency (hours) ! variable  ! time interp.!  clim  ! 'yearly'/ ! weights filename ! rotation ! land/sea mask !
   !           !                         !  (if <0  months)  !   name    !   (logical) !  (T/F) ! 'monthly' !                  ! pairing  !    filename   !
  sn_chl      ='merged_ESACCI_BIOMER4V1R1_CHL_REG05',  -1  , 'CHLA' , .true. , .true. , 'yearly' , 'weights_reg05_bilinear.nc' , '' , ''
/
!-----------------------------------------------------------------------
&namsbc_ssr    !   surface boundary condition : sea surface restoring   (ln_ssr =T)
!-----------------------------------------------------------------------
   nn_sssr     =     2     !  add a damping term to the surface freshwater flux
      rn_deds     =  -220.00  !  magnitude of the damping on salinity   [mm/day]
      ln_sssr_bnd =  .true.   !  flag to bound erp term (associated with nn_sssr=2)
      rn_sssr_bnd =   4.e0    !  ABS(Max/Min) value of the damping erp term [mm/day]
      nn_sssr_ice =   1       ! control of sea surface restoring under sea-ice
                              ! 0 = no restoration under ice : * (1-icefrac)
   !___________!_________________________!___________________!___________!_____________!________!___________!__________________!__________!_______________!
   !           !  file name              ! frequency (hours) ! variable  ! time interp.!  clim  ! 'yearly'/ ! weights filename ! rotation ! land/sea mask !
   !           !                         !  (if <0  months)  !   name    !   (logical) !  (T/F) ! 'monthly' !                  ! pairing  !    filename   !
   sn_sss      = 'sss_climatology_for_restoring.nc', -1. , 'presalt',    .true. ,         .true. , 'yearly' ,    '' ,      '' ,   ''
/
!-----------------------------------------------------------------------
&namsbc_rnf    !   runoffs                                              (ln_rnf =T)
!-----------------------------------------------------------------------
   ln_rnf_mouth = .false.   !  specific treatment at rivers mouths
      rn_hrnf     =  15.e0    !  depth over which enhanced vertical mixing is used    (ln_rnf_mouth=T)
      rn_avt_rnf  =   1.e-3   !  value of the additional vertical mixing coef. [m2/s] (ln_rnf_mouth=T)
   rn_rfact    =   1.e0    !  multiplicative factor for runoff
   ln_rnf_depth = .false.   !  read in depth information for runoff
   ln_rnf_tem  = .false.   !  read in temperature information for runoff
   ln_rnf_sal  = .false.   !  read in salinity information for runoff
   ln_rnf_icb  = .false.   !  read iceberg flux
   ln_rnf_depth_ini = .true. ! compute depth at initialisation from runoff file
      rn_rnf_max  = 0.05  !  max value of the runoff climatologie over global domain ( ln_rnf_depth_ini = .true )
      rn_dep_max  = 150.      !  depth over which runoffs is spread ( ln_rnf_depth_ini = .true )
      nn_rnf_depth_file = 0   !  create (=1) a runoff depth file or not (=0)

   cn_dir = './'  !  root directory for the location of the runoff files
   !___________!_____________!___________________!___________!_____________!_________!___________!__________!__________!_______________!
   !           !  file name  ! frequency (hours) ! variable  ! time interp. !  clim  ! 'yearly'/ ! weights  ! rotation ! land/sea mask !
   !           !             !  (if <0  months)  !   name    !   (logical)  !  (T/F) ! 'monthly' ! filename ! pairing  ! filename      !
   sn_rnf      = 'runoff-icb_DaiTrenberth_Depoorter.nc',        -1         , 'sorunoff',   .true.     , .true. , 'yearly'  , ''       , ''       , ''
   sn_i_rnf    = 'runoff-icb_DaiTrenberth_Depoorter.nc',        -1         , 'Icb_flux',   .true.     , .true. , 'yearly'  , ''       , ''       , ''
   sn_cnf      = 'runoff-icb_DaiTrenberth_Depoorter.nc',         0         , 'socoeff' ,   .false.    , .true. , 'yearly'  , ''       , ''       , ''
   sn_s_rnf    = 'runoffs'            ,        24         , 'rosaline',   .true.     , .true. , 'yearly'  , ''       , ''       , ''
   sn_t_rnf    = 'runoffs'            ,        24         , 'rotemper',   .true.     , .true. , 'yearly'  , ''       , ''       , ''
   sn_dep_rnf  = 'runoffs_eORCA1.1_depths.nc'            ,         0         , 'rodepth' ,   .false.    , .true. , 'yearly'  , ''       , ''       , ''
/
!-----------------------------------------------------------------------
&namisf       !  Top boundary layer (ISF)                               (default: OFF)
!-----------------------------------------------------------------------
   !
   ! ---------------- ice shelf load -------------------------------
   !
   cn_isfload = 'uniform'      ! scheme to compute ice shelf load (ln_isfcav = .true. in domain_cfg.nc)
      rn_isfload_T = -1.9
      rn_isfload_S = 34.4
   !
   ! ---------------- ice shelf melt formulation -------------------------------
   !
   ln_isf = .true.           ! activate ice shelf module
      ln_isfdebug = .false.      ! add debug print in ISF code (global min/max/sum of specific variable)
      cn_isfdir   = './'         ! directory for all ice shelf input file
      !
      ! ---------------- cavities opened -------------------------------
      !
      ln_isfcav_mlt = .false.    ! ice shelf melting into the cavity (need ln_isfcav = .true. in domain_cfg.nc)
         cn_isfcav_mlt = '3eq'   ! ice shelf melting formulation (spe/2eq/3eq/oasis)
         !                       ! spe = fwfisf is read from a forcing field
         !                       ! 2eq = ISOMIP  like: 2 equations formulation (Hunter et al., 2006 for a short description)
         !                       ! 3eq = ISOMIP+ like: 3 equations formulation (Asay-Davis et al., 2016 for a short description)
         !                       ! oasis = fwfisf is given by oasis and pattern by file sn_isfcav_fwf
         !              !  cn_isfcav_mlt = 2eq or 3eq cases:
         cn_gammablk = 'vel'     ! scheme to compute gammat/s (spe,ad15,hj99)
         !                       ! spe      = constant transfert velocity (rn_gammat0, rn_gammas0)
         !                       ! vel      = velocity dependent transfert velocity (u* * gammat/s) (Asay-Davis et al. 2016 for a short description)
         !                       ! vel_stab = velocity and stability dependent transfert coeficient (Holland et al. 1999 for a complete description)
         rn_gammat0  = 1.4e-2    ! gammat coefficient used in spe, vel and vel_stab gamma computation method
         rn_gammas0  = 4.0e-4    ! gammas coefficient used in spe, vel and vel_stab gamma computation method
         !
         rn_htbl     =  30.      ! thickness of the top boundary layer    (Losh et al. 2008)
         !                       ! 0 => thickness of the tbl = thickness of the first wet cell
         !
         !* 'spe' and 'oasis' case
         !___________!_____________!___________________!___________!_____________!_________!___________!__________!__________!_______________!
         !           !  file name  ! frequency (hours) ! variable  ! time interp.!  clim   ! 'yearly'/ ! weights  ! rotation ! land/sea mask !
         !           !             !  (if <0  months)  !   name    !  (logical)  !  (T/F)  ! 'monthly' ! filename ! pairing  ! filename      !
         sn_isfcav_fwf = 'isfmlt_cav',      -12.      , 'fwflisf'  ,  .false.    , .true.  , 'yearly'  ,    ''    ,   ''     ,    ''
      !
      ! ---------------- cavities parametrised -------------------------------
      !
      ln_isfpar_mlt = .true.   ! ice shelf melting parametrised
         cn_isfpar_mlt = 'spe'  ! ice shelf melting parametrisation (spe/bg03/oasis)
         !                      ! spe   = fwfisf is read from a forcing field
         !                      ! bg03  = melt computed using Beckmann and Goosse parametrisation
         !                      ! oasis = fwfisf is given by oasis and pattern by file sn_isfpar_fwf
         !
         !* all cases
         !___________!_____________!___________________!___________!_____________!_________!___________!__________!__________!_______________!
         !           !  file name  ! frequency (hours) ! variable  ! time interp.!  clim   ! 'yearly'/ ! weights  ! rotation ! land/sea mask !
         !           !             !  (if <0  months)  !   name    !  (logical)  !  (T/F)  ! 'monthly' ! filename ! pairing  ! filename      !
         sn_isfpar_zmax = 'runoff-icb_DaiTrenberth_Depoorter.nc' ,   -12      ,'sodepmax_isf' ,   .false.  , .true.  , 'yearly'  ,  ''      ,   ''
         sn_isfpar_zmin = 'runoff-icb_DaiTrenberth_Depoorter.nc' ,   -12      ,'sodepmin_isf' ,   .false.  , .true.  , 'yearly'  ,  ''      ,   ''
         !* 'spe' and 'oasis' case
         sn_isfpar_fwf = 'runoff-icb_DaiTrenberth_Depoorter.nc' ,   -12      ,'sornfisf',    .false.      , .true.  , 'yearly'  ,  ''      ,   ''
         !* 'bg03' case
         sn_isfpar_Leff = 'isfmlt_par',       0.       ,'Leff'     ,  .false.    , .true.  , 'yearly'  ,    ''    ,   ''     ,    ''
      !
      ! ---------------- ice sheet coupling -------------------------------
      !
      ln_isfcpl = .false.
         nn_drown       = 10        ! number of iteration of the extrapolation loop (fill the new wet cells)
         ln_isfcpl_cons = .false.
/
!-----------------------------------------------------------------------
&namsbc_wave   ! External fields from wave model                        (ln_wave=T)
!-----------------------------------------------------------------------
/
!-----------------------------------------------------------------------
&namberg       !   iceberg parameters                                   (default: OFF)
!-----------------------------------------------------------------------
/
!!======================================================================
!!               ***  Lateral boundary condition  ***                 !!
!!                                                                    !!
!!   namlbc        lateral momentum boundary condition                  (default: NO selection)
!!   namagrif      agrif nested grid   (read by child model only)       ("key_agrif")
!!   nam_tide      Tidal forcing                                        (default: OFF)
!!   nambdy        Unstructured open boundaries                         (default: OFF)
!!   nambdy_dta    Unstructured open boundaries - external data         (see  nambdy)
!!   nambdy_tide   tidal forcing at open boundaries                     (default: OFF)
!!======================================================================
!
!-----------------------------------------------------------------------
&namlbc        !   lateral momentum boundary condition                  (default: NO selection)
!-----------------------------------------------------------------------
   rn_shlat    =    0.     !  free slip
/
!-----------------------------------------------------------------------
&namagrif      !  AGRIF zoom                                            ("key_agrif")
!-----------------------------------------------------------------------
/
!!======================================================================
!!                ***  Top/Bottom boundary condition  ***             !!
!!                                                                    !!
!!   namdrg        top/bottom drag coefficient                          (default: NO selection)
!!   namdrg_top    top    friction                                      (ln_OFF=F & ln_isfcav=T)
!!   namdrg_bot    bottom friction                                      (ln_OFF=F)
!!   nambbc        bottom temperature boundary condition                (default: OFF)
!!   nambbl        bottom boundary layer scheme                         (default: OFF)
!!======================================================================
!
!-----------------------------------------------------------------------
&namdrg        !   top/bottom drag coefficient                          (default: NO selection)
!-----------------------------------------------------------------------
   ln_non_lin  = .true.   !  non-linear  drag: Cd = Cd0 |U|
   ln_loglayer = .false.   !  logarithmic drag: Cd = vkarmn/log(z/z0) |U|
   !
   ln_drgimp   = .true.    !  implicit top/bottom friction flag
/
!-----------------------------------------------------------------------
&namdrg_bot    !   BOTTOM friction                                      (ln_OFF =F)
!-----------------------------------------------------------------------
   rn_Cd0      =  1.e-3    !  drag coefficient [-]
   rn_Cdmax    =  0.1      !  drag value maximum [-] (logarithmic drag)
   rn_ke0      =  2.5e-3   !  background kinetic energy  [m2/s2] (non-linear cases)
   rn_z0       =  3.e-3    !  roughness [m] (ln_loglayer=T)
   ln_boost    = .false.   !  =T regional boost of Cd0 ; =F constant
      rn_boost =  50.         !  local boost factor  [-]
/
!-----------------------------------------------------------------------
&nambbc        !   bottom temperature boundary condition                (default: OFF)
!-----------------------------------------------------------------------
   ln_trabbc   = .true.    !  Apply a geothermal heating at the ocean bottom
      nn_geoflx   =    2      !  geothermal heat flux: = 2 read variable flux [mW/m2]

   cn_dir = './'  !  root directory for the geothermal data location
   !___________!____________________!___________________!___________!_____________!________!___________!__________________!__________!_______________!
   !           !  file name         ! frequency (hours) ! variable  ! time interp.!  clim  ! 'yearly'/ ! weights filename ! rotation ! land/sea mask !
   !           !                    !  (if <0  months)  !   name    !   (logical) !  (T/F) ! 'monthly' !                  ! pairing  !    filename   !
   sn_qgh      ='geothermal_heat_flux.nc',        -12.       , 'gh_flux' ,   .false.   , .true. , 'yearly'  , 'weights_ghflux_bilinear.nc'       , ''       , ''
/
!-----------------------------------------------------------------------
&nambbl        !   bottom boundary layer scheme                         (default: OFF)
!-----------------------------------------------------------------------
   ln_trabbl   = .true.    !  Bottom Boundary Layer parameterisation flag
      nn_bbl_ldf  =  0        !  diffusive bbl (=1)   or not (=0)
      nn_bbl_adv  =  2        !  advective bbl (=1/2) or not (=0)
      rn_ahtbbl   =  1000.    !  lateral mixing coefficient in the bbl  [m2/s]
      rn_gambbl   =  20.      !  advective bbl coefficient                 [s]
/
!!======================================================================
!!                        Tracer (T-S) namelists                      !!
!!                                                                    !!
!!   nameos        equation of state                                    (default: NO selection)
!!   namtra_adv    advection scheme                                     (default: NO selection)
!!   namtra_ldf    lateral diffusion scheme                             (default: NO selection)
!!   namtra_mle    mixed layer eddy param. (Fox-Kemper param.)          (default: OFF)
!!   namtra_eiv    eddy induced velocity param.                         (default: OFF)
!!   namtra_dmp    T & S newtonian damping                              (default: OFF)
!!======================================================================
!
!-----------------------------------------------------------------------
&nameos        !   ocean Equation Of Seawater                           (default: NO selection)
!-----------------------------------------------------------------------
   ln_teos10   = .true.         !  = Use TEOS-10
/
!-----------------------------------------------------------------------
&namtra_adv    !   advection scheme for tracer                          (default: NO selection)
!-----------------------------------------------------------------------
   ln_traadv_fct = .true.     !  FCT scheme
      nn_fct_h   =  2               !  =2/4, horizontal 2nd / 4th order
      nn_fct_v   =  2               !  =2/4, vertical   2nd / COMPACT 4th order
/
!-----------------------------------------------------------------------
&namtra_ldf    !   lateral diffusion scheme for tracers                 (default: NO selection)